[Format]      =  4.0
[Frequency]   =  0
[Precision]   =  1e-008
[MinAngle]    =  30
[DoSmartMesh] =  1
[Depth]       =  1
[LengthUnits] =  centimeters
[ProblemType] =  planar
[Coordinates] =  polar
[ACSolver]    =  0
[PrevType]    =  0
[PrevSoln]    =  ""
[Comment]     =  "Add comments here."
[PointProps]   = 2
  <BeginPoint>
    <PointName> = "filed"
    <I_re> = 1
    <I_im> = 0
    <A_re> = 0
    <A_im> = 0
  <EndPoint>
  <BeginPoint>
    <PointName> = "armature"
    <I_re> = 10
    <I_im> = 0
    <A_re> = 0
    <A_im> = 0
  <EndPoint>
[BdryProps]   = 1
  <BeginBdry>
    <BdryName> = "a=0"
    <BdryType> = 0
    <A_0> = 0
    <A_1> = 0
    <A_2> = 0
    <Phi> = 0
    <c0> = 0
    <c0i> = 0
    <c1> = 0
    <c1i> = 0
    <Mu_ssd> = 0
    <Sigma_ssd> = 0
    <innerangle> = 0
    <outerangle> = 0
  <EndBdry>
[BlockProps]  = 5
  <BeginBlock>
    <BlockName> = "core"
    <Mu_x> = 1000
    <Mu_y> = 1000
    <H_c> = 0
    <H_cAngle> = 0
    <J_re> = 0
    <J_im> = 0
    <Sigma> = 0
    <d_lam> = 0
    <Phi_h> = 0
    <Phi_hx> = 0
    <Phi_hy> = 0
    <LamType> = 0
    <LamFill> = 1
    <NStrands> = 0
    <WireD> = 0
    <BHPoints> = 101
      0	0
      0.036652999999999998	57.274821000000003
      0.073304999999999995	114.54964200000001
      0.109958	171.82446300000001
      0.14661099999999999	229.09928400000001
      0.18326300000000001	286.37410499999999
      0.219917	328.68000699999999
      0.25657099999999999	352.36434000000003
      0.29322500000000001	377.76806299999998
      0.32987899999999998	404.998693
      0.36653400000000003	434.19204400000001
      0.40318799999999999	463.07769300000001
      0.43984200000000001	493.10395699999998
      0.47649599999999998	524.55809099999999
      0.51315	555.68963599999995
      0.54980399999999996	588.68209100000001
      0.58645700000000001	623.22781199999997
      0.62311099999999997	658.85456099999999
      0.65976500000000005	695.55499099999997
      0.69641900000000001	736.09728500000006
      0.73307199999999995	778.73352799999998
      0.76972499999999999	821.67630099999997
      0.80637800000000004	874.29092200000002
      0.84303099999999997	937.23019599999998
      0.87968299999999999	1004.679817
      0.91633399999999998	1076.979288
      0.95298499999999997	1154.385295
      0.98963500000000004	1243.9213990000001
      1.0262849999999999	1340.3507079999999
      1.0629310000000001	1457.5449510000001
      1.0995729999999999	1604.417905
      1.136206	1794.7687209999999
      1.172831	2019.304535
      1.20943	2317.778131
      1.2460039999999999	2686.9152359999998
      1.2825279999999999	3145.5451629999998
      1.3189740000000001	3720.1541360000001
      1.3552219999999999	4524.7108349999999
      1.3912279999999999	5540.2438920000004
      1.4269559999999999	6754.9117459999998
      1.4625239999999999	8069.7499189999999
      1.497606	9642.9181019999996
      1.532125	11480.097528
      1.5655600000000001	13730.551412000001
      1.5969640000000001	16613.748538
      1.625326	20142.276925999999
      1.650183	24157.291952
      1.6701649999999999	28619.764294000001
      1.687082	33474.613321999997
      1.699333	38700.599679999999
      1.711438	43957.113619000003
      1.723568	49233.285602999997
      1.73217	54734.990747000003
      1.740235	60268.223152999999
      1.7496609999999999	65732.050929000005
      1.756915	71313.475959000003
      1.763944	76907.084629000004
      1.7710699999999999	82497.627888000003
      1.7780990000000001	88091.236558000004
      1.7862819999999999	93630.247254000002
      1.7948	99153.606943000006
      1.8018289999999999	104747.21561299999
      1.8089550000000001	110337.799725
      1.815984	115931.40839500001
      1.823013	121525.017066
      1.8300419999999999	127118.625736
      1.837167	132709.22507799999
      1.8441959999999999	138302.833748
      1.851226	143896.44241799999
      1.858255	149490.05108899999
      1.8652839999999999	155083.659759
      1.872409	160674.273315
      1.8794379999999999	166267.88198500001
      1.886468	171861.490655
      1.893497	177455.09932499999
      1.9005259999999999	183048.707995
      1.907651	188639.33280599999
      1.9146799999999999	194232.94147600001
      1.9217089999999999	199826.55014599999
      1.928739	205420.15881600001
      1.9357679999999999	211013.767486
      1.9427970000000001	216607.37615600001
      1.9498260000000001	222200.984826
      1.9569510000000001	227791.61919600001
      1.963981	233385.227866
      1.9710099999999999	238978.83653599999
      1.9780390000000001	244572.445206
      1.9850680000000001	250166.05387599999
      1.992097	255759.66254600001
      1.999126	261353.271217
      2.0061550000000001	266946.87988700002
      2.0132810000000001	272537.52196899999
      2.0203099999999998	278131.13063899998
      2.027339	283724.73930900003
      2.0343680000000002	289318.34797900001
      2.0413969999999999	294911.956649
      2.0484260000000001	300505.56531999999
      2.0554559999999999	306099.17398999998
      2.0624850000000001	311692.78266000003
      2.0695139999999999	317286.39133000001
      2.076543	322880
  <EndBlock>
  <BeginBlock>
    <BlockName> = "air"
    <Mu_x> = 1
    <Mu_y> = 1
    <H_c> = 0
    <H_cAngle> = 0
    <J_re> = 0
    <J_im> = 0
    <Sigma> = 0
    <d_lam> = 0
    <Phi_h> = 0
    <Phi_hx> = 0
    <Phi_hy> = 0
    <LamType> = 0
    <LamFill> = 1
    <NStrands> = 0
    <WireD> = 0
    <BHPoints> = 0
  <EndBlock>
  <BeginBlock>
    <BlockName> = "WINDING"
    <Mu_x> = 1
    <Mu_y> = 1
    <H_c> = 0
    <H_cAngle> = 0
    <J_re> = 1
    <J_im> = 0
    <Sigma> = 0
    <d_lam> = 0
    <Phi_h> = 0
    <Phi_hx> = 0
    <Phi_hy> = 0
    <LamType> = 0
    <LamFill> = 1
    <NStrands> = 0
    <WireD> = 0
    <BHPoints> = 0
  <EndBlock>
  <BeginBlock>
    <BlockName> = "WINDING2"
    <Mu_x> = 1
    <Mu_y> = 1
    <H_c> = 0
    <H_cAngle> = 0
    <J_re> = -1
    <J_im> = 0
    <Sigma> = 0
    <d_lam> = 0
    <Phi_h> = 0
    <Phi_hx> = 0
    <Phi_hy> = 0
    <LamType> = 0
    <LamFill> = 1
    <NStrands> = 0
    <WireD> = 0
    <BHPoints> = 0
  <EndBlock>
  <BeginBlock>
    <BlockName> = "copper"
    <Mu_x> = 1
    <Mu_y> = 1
    <H_c> = 0
    <H_cAngle> = 0
    <J_re> = 0
    <J_im> = 0
    <Sigma> = 0
    <d_lam> = 0
    <Phi_h> = 0
    <Phi_hx> = 0
    <Phi_hy> = 0
    <LamType> = 0
    <LamFill> = 1
    <NStrands> = 0
    <WireD> = 0
    <BHPoints> = 0
  <EndBlock>
[CircuitProps]  = 4
  <BeginCircuit>
    <CircuitName> = "filed"
    <TotalAmps_re> = 0
    <TotalAmps_im> = 0
    <CircuitType> = 1
  <EndCircuit>
  <BeginCircuit>
    <CircuitName> = "armature"
    <TotalAmps_re> = 10
    <TotalAmps_im> = 0
    <CircuitType> = 1
  <EndCircuit>
  <BeginCircuit>
    <CircuitName> = "filed2"
    <TotalAmps_re> = 0
    <TotalAmps_im> = 0
    <CircuitType> = 1
  <EndCircuit>
  <BeginCircuit>
    <CircuitName> = "armature2"
    <TotalAmps_re> = -10
    <TotalAmps_im> = 0
    <CircuitType> = 1
  <EndCircuit>
[NumPoints] = 56
0	5	0	0
0	-5	0	0
0	4	0	0
0	-4	0	0
-4	0	0	0
4	0	0	0
3	0	0	0
-3	0	0	0
2.8531695488854605	0.92705098312484213	0	0
2.8531695488854605	-0.92705098312484213	0	0
2.7406363729278027	-1.2202099292274005	0	0
-2.7406363729278023	1.2202099292274013	0	0
-2.7406363729278023	-1.2202099292274013	0	0
-2.8531695488854605	0.92705098312484258	0	0
-2.8531695488854605	-0.92705098312484258	0	0
2.7406363729278027	1.2202099292274005	0	0
-3.8100000000000001	1.24	0	0
-3.79	-1.26	0	0
-3.8900000000000001	-0.94999999999999996	0	0
-3.8900000000000001	0.90000000000000002	0	0
3.8199999999999998	1.1899999999999999	0	0
3.8799999999999999	0.92000000000000004	0	0
3.8799999999999999	-0.95999999999999996	0	0
3.7999999999999998	-1.24	0	0
2.4904867452293638	-0.2178893568691454	0	0
1.9923893961834911	-0.17431148549531633	0	0
1.9923893961834911	0.17431148549531633	0	0
2.4904867452293638	0.2178893568691454	0	0
1.2855752193730787	1.532088886237956	0	0
1.532088886237956	1.2855752193730785	0	0
-0.17431148549531647	1.9923893961834911	0	0
0.21788935686914535	2.4904867452293638	0	0
0.17431148549531628	1.9923893961834911	0	0
-0.2178893568691456	2.4904867452293638	0	0
-1.5320888862379558	1.2855752193730789	0	0
-1.2855752193730787	1.532088886237956	0	0
-1.6069690242163484	1.915111107797445	0	0
-1.9151111077974448	1.6069690242163488	0	0
-2.4904867452293638	-0.21788935686914485	0	0
-1.9923893961834911	0.17431148549531728	0	0
-2.4904867452293638	0.21788935686914659	0	0
-1.9923893961834911	-0.17431148549531589	0	0
-1.5320888862379558	-1.2855752193730789	0	0
-1.9151111077974448	-1.6069690242163488	0	0
-1.2855752193730787	-1.532088886237956	0	0
-1.6069690242163484	-1.915111107797445	0	0
0.17431148549531628	-1.9923893961834911	0	0
0.21788935686914535	-2.4904867452293638	0	0
-0.17431148549531647	-1.9923893961834911	0	0
-0.2178893568691456	-2.4904867452293638	0	0
1.532088886237956	-1.2855752193730785	0	0
1.915111107797445	-1.6069690242163481	0	0
1.2855752193730787	-1.532088886237956	0	0
1.6069690242163484	-1.915111107797445	0	0
1.915111107797445	1.6069690242163481	0	0
1.6069690242163484	1.915111107797445	0	0
[NumSegments] = 24
16	11	-1	0	0	1
19	13	-1	0	0	1
18	14	-1	0	0	1
17	12	-1	0	0	1
10	23	-1	0	0	1
9	22	-1	0	0	1
8	21	-1	0	0	1
15	20	-1	0	0	1
26	27	-1	0	0	0
25	24	-1	0	0	0
50	51	-1	0	0	0
52	53	-1	0	0	0
46	47	-1	0	0	0
48	49	-1	0	0	0
44	45	-1	0	0	0
42	43	-1	0	0	0
41	38	-1	0	0	0
40	39	-1	0	0	0
37	34	-1	0	0	0
36	35	-1	0	0	0
33	30	-1	0	0	0
31	32	-1	0	0	0
28	55	-1	0	0	0
29	54	-1	0	0	0
[NumArcSegments] = 54
0	1	180	1	1	0	1	1
1	0	180	1	1	0	1	1
2	16	71.972038819346267	1	0	0	1	1
4	18	13.725953429627932	1	0	0	1	1
7	14	18.000000000000004	1	0	0	1	1
3	23	71.929170006970665	1	0	0	1	1
6	8	17.999999999999996	1	0	0	1	1
5	21	13.33867528109597	1	0	0	1	1
9	6	17.999999999999993	1	0	0	1	1
10	9	5.9999999999999973	1	0	0	1	1
11	13	6.0000000000000098	1	0	0	1	1
13	7	18.000000000000004	1	0	0	1	1
14	12	6.0000000000000098	1	0	0	1	1
8	15	6.0000000000000036	1	0	0	1	1
16	19	5.0050352272078102	1	0	0	1	1
17	3	71.610415996983221	1	0	0	1	1
18	17	4.6636305733888417	1	0	0	1	1
19	4	13.022925953445926	1	0	0	1	1
20	2	72.69723145220928	1	0	0	1	1
21	20	3.964093266694741	1	0	0	0	1
22	5	13.897176315015358	1	0	0	1	1
23	22	4.1736536780139764	1	0	0	0	1
27	54	34.999999999999993	1	0	0	0	1
26	29	35	1	0	0	0	1
28	32	35	1	0	0	0	1
29	28	10.000000000000002	1	0	0	0	1
30	35	35.000000000000014	1	0	0	0	1
33	36	34.999999999999993	1	0	0	0	1
34	39	35	1	0	0	0	1
35	34	9.9999999999999893	1	0	0	0	1
36	37	9.999999999999984	1	0	0	0	1
37	40	34.999999999999979	1	0	0	0	1
38	43	35.000000000000014	1	0	0	0	1
39	41	10.00000000000002	1	0	0	0	1
41	42	35.00000000000005	1	0	0	0	1
42	44	9.9999999999999964	1	0	0	0	1
43	45	9.999999999999984	1	0	0	0	1
44	48	35.000000000000014	1	0	0	0	1
45	49	35	1	0	0	0	1
46	52	35.000000000000014	1	0	0	0	1
47	53	35	1	0	0	0	1
50	25	35.000000000000014	1	0	0	0	1
51	24	34.999999999999993	1	0	0	0	1
52	50	10.000000000000005	1	0	0	0	1
53	51	10.000000000000005	1	0	0	0	1
54	55	9.9999999999999964	1	0	0	0	1
55	31	35	1	0	0	0	1
48	46	10.000000000000002	1	0	0	0	1
32	30	10	1	0	0	0	1
40	38	10.000000000000012	1	0	0	0	1
49	47	10.000000000000005	1	0	0	0	1
31	33	10.000000000000002	1	0	0	0	1
25	26	9.9999999999999982	1	0	0	0	1
24	27	9.9999999999999982	1	0	0	0	1
[NumHoles] = 0
[NumBlockLabels] = 25
-1.5600000000000001	4.0199999999999996	1	-1	0	0	0	1	0
-2.0600000000000001	2.7000000000000002	2	-1	0	0	0	1	0
-0.80000000000000004	2.0800000000000001	1	-1	0	0	0	1	0
1.0900000000000001	2.0099999999999998	1	-1	0	0	0	1	0
2.1200000000000001	0.56000000000000005	1	-1	0	0	0	1	0
2.1699999999999999	-0.95999999999999996	1	-1	0	0	0	1	0
0.95999999999999996	-1.98	1	-1	0	0	0	1	0
-0.79000000000000004	-2.21	1	-1	0	0	0	1	0
-2.0299999999999998	-1	1	-1	0	0	0	1	0
-2.1299999999999999	0.56999999999999995	1	-1	0	0	0	1	0
0.44	0.13	1	-1	0	0	0	1	0
-3.4500000000000002	-0.33000000000000002	1	-1	0	0	0	1	0
3.3599999999999999	0.28000000000000003	1	-1	0	0	0	1	0
-1.49	1.49	5	-1	4	0	0	10	0
0.080000000000000002	2.3199999999999998	5	-1	0	0	0	1	0
1.52	1.47	5	-1	2	0	0	10	0
2.3700000000000001	-0.050000000000000003	5	-1	2	0	0	10	0
1.6799999999999999	-1.52	5	-1	2	0	0	10	0
0.080000000000000002	-2.4300000000000002	5	-1	0	0	0	1	0
-1.6699999999999999	-1.7	5	-1	4	0	0	10	0
-2.2799999999999998	-0.050000000000000003	5	-1	4	0	0	10	0
-3.1699999999999999	1.01	5	-1	1	0	0	100	0
-3.1099999999999999	-1.1399999999999999	5	-1	3	0	0	100	0
3.2000000000000002	1.1599999999999999	5	-1	1	0	0	100	0
3.4100000000000001	-1.0600000000000001	5	-1	3	0	0	100	0
